
**** 11/05/20 17:22:01 ******* PSpice Lite (March 2016) ******* ID# 10813 ****

 ** Profile: "SCHEMATIC1-6"  [ C:\Users\dell\Desktop\courses\adc\exp_6\exp_6-pspicefiles\schematic1\6.sim ] 


 ****     CIRCUIT DESCRIPTION


******************************************************************************




** Creating circuit file "6.cir" 
** WARNING: THIS AUTOMATICALLY GENERATED FILE MAY BE OVERWRITTEN BY SUBSEQUENT SIMULATIONS

*Libraries: 
* Profile Libraries :
* Local Libraries :
* From [PSPICE NETLIST] section of C:\SPB_Data\cdssetup\OrCAD_PSpice\17.2.0\PSpice.ini file:
.lib "nomd.lib" 

*Analysis directives: 
.TRAN  0 8m 0 
.OPTIONS ADVCONV
.PROBE64 V(alias(*)) I(alias(*)) W(alias(*)) D(alias(*)) NOISE(alias(*)) 
.INC "..\SCHEMATIC1.net" 



**** INCLUDING SCHEMATIC1.net ****
* source EXP_6
X_U1A         N00545 N00576 M_UN0001 $G_DPWR $G_DGND 7486 PARAMS:
+ IO_LEVEL=0 MNTYMXDLY=0
X_U1B         N00576 N00616 M_UN0002 $G_DPWR $G_DGND 7486 PARAMS:
+ IO_LEVEL=0 MNTYMXDLY=0
X_U1C         N00665 N00656 N00692 $G_DPWR $G_DGND 7486 PARAMS:
+ IO_LEVEL=0 MNTYMXDLY=0
X_U1D         N00692 N00644 M_UN0003 $G_DPWR $G_DGND 7486 PARAMS:
+ IO_LEVEL=0 MNTYMXDLY=0
U_Bin2         STIM(1,1) $G_DPWR $G_DGND N00545 IO_STM IO_LEVEL=0 
+ 0 0
+ +4m 1
+REPEAT FOREVER
+ +4m 0
+  +4m 1
+ ENDREPEAT
U_Bin1         STIM(1,1) $G_DPWR $G_DGND N00576 IO_STM IO_LEVEL=0 
+ 0 0
+ +2m 1
+REPEAT FOREVER
+ +2m 0
+  +2m 1
+ ENDREPEAT
U_Bin0         STIM(1,1) $G_DPWR $G_DGND N00616 IO_STM IO_LEVEL=0 
+ 0 0
+ +1m 1
+REPEAT FOREVER
+ +1m 0
+  +1m 1
+ ENDREPEAT
U_Gra2         STIM(1,1) $G_DPWR $G_DGND N00665 IO_STM IO_LEVEL=0 
+ 0 0
+ +4m 1
+REPEAT FOREVER
+ +4m 0
+  +4m 1
+ ENDREPEAT
U_Gra1         STIM(1,1) $G_DPWR $G_DGND N00656 IO_STM IO_LEVEL=0 
+ 0 0
+ +2m 1
+REPEAT FOREVER
+ +2m 0
+  +2m 1
+ ENDREPEAT
U_Gra0         STIM(1,1) $G_DPWR $G_DGND N00644 IO_STM IO_LEVEL=0 
+ 0 0
+ +1m 1
+REPEAT FOREVER
+ +1m 0
+  +1m 1
+ ENDREPEAT

**** RESUMING 6.cir ****
.END

**** 11/05/20 17:22:01 ******* PSpice Lite (March 2016) ******* ID# 10813 ****

 ** Profile: "SCHEMATIC1-6"  [ C:\Users\dell\Desktop\courses\adc\exp_6\exp_6-pspicefiles\schematic1\6.sim ] 


 ****     Digital Gate MODEL PARAMETERS


******************************************************************************




               D0_GATE         D_86_1          D_86_2          D_86_3          
      TPLHMN    0               3.600000E-09    4.800000E-09    2.400000E-09 
      TPLHTY    0               9.000000E-09   12.000000E-09    6.000000E-09 
      TPLHMX    0              17.000000E-09   24.000000E-09    6.000000E-09 
      TPHLMN    0               2.000000E-09    2.800000E-09    2.400000E-09 
      TPHLTY    0               5.000000E-09    7.000000E-09    6.000000E-09 
      TPHLMX    0              11.000000E-09   16.000000E-09    6.000000E-09 


**** 11/05/20 17:22:01 ******* PSpice Lite (March 2016) ******* ID# 10813 ****

 ** Profile: "SCHEMATIC1-6"  [ C:\Users\dell\Desktop\courses\adc\exp_6\exp_6-pspicefiles\schematic1\6.sim ] 


 ****     Digital IO  MODEL PARAMETERS


******************************************************************************




               IO_STM          IO_STD          
        DRVL    0             104            
        DRVH    0              96.4          
       AtoD1                 AtoD_STD        
       AtoD2                 AtoD_STD_NX     
       AtoD3                 AtoD_STD        
       AtoD4                 AtoD_STD_NX     
       DtoA1 DtoA_STM        DtoA_STD        
       DtoA2 DtoA_STM        DtoA_STD        
       DtoA3 DtoA_STM        DtoA_STD        
       DtoA4 DtoA_STM        DtoA_STD        
      TSWHL1                    1.511000E-09 
      TSWHL2                    1.487000E-09 
      TSWHL3                    1.511000E-09 
      TSWHL4                    1.487000E-09 
      TSWLH1                    3.517000E-09 
      TSWLH2                    3.564000E-09 
      TSWLH3                    3.517000E-09 
      TSWLH4                    3.564000E-09 
       TPWRT  100.000000E+03  100.000000E+03 



          JOB CONCLUDED

**** 11/05/20 17:22:01 ******* PSpice Lite (March 2016) ******* ID# 10813 ****

 ** Profile: "SCHEMATIC1-6"  [ C:\Users\dell\Desktop\courses\adc\exp_6\exp_6-pspicefiles\schematic1\6.sim ] 


 ****     JOB STATISTICS SUMMARY


******************************************************************************



  Total job time                    =         .75
